LTspice 24.0.12 for Windows
Circuit: * C:\Users\Teighin Nordholt\Desktop\QRET\prop-ecad\TC_Amp\Sim\charge_pump.asc
Start Time: Sun Feb  9 14:36:03 2025
solver = Normal
Maximum thread count: 8
tnom = 27
temp = 27
method = modified trap
Direct Newton iteration failed to find .op point.  (Use ".option noopiter" to skip.)
Starting Gmin stepping
Gmin = 10
Gmin = 1.07374
Gmin = 0.115292
Gmin = 0.0123794
Gmin = 0.00132923
Gmin = 0.000142725
Gmin = 1.5325e-05
vernier = 0.5
vernier = 0.25
vernier = 0.125
Gmin = 9.22256e-06
vernier = 0.0625
vernier = 0.03125
vernier = 0.015625
vernier = 0.0078125
vernier = 0.00390625
Gmin = 9.40031e-06
vernier = 0.00195312
vernier = 0.000976562
vernier = 0.000488281
Gmin = 0
Gmin stepping failed

Starting source stepping with srcstepmethod=0
Source Step = 3.0303%
Source Step = 33.3333%
Source Step = 63.6364%
Source Step = 93.9394%
Source stepping succeeded in finding the operating point.

Heightened Def Con from 0.00114827 to 0.00114827
Heightened Def Con from 0.00190398 to 0.00190398
Heightened Def Con from 0.00316992 to 0.00316993
Heightened Def Con from 0.00384279 to 0.0038428
Heightened Def Con from 0.0041953 to 0.0041953
Heightened Def Con from 0.00740035 to 0.00740035
Heightened Def Con from 0.00906283 to 0.00906283
Heightened Def Con from 0.0100125 to 0.0100125
Heightened Def Con from 0.0110799 to 0.0110799
Heightened Def Con from 0.0120695 to 0.0120695
Heightened Def Con from 0.0151103 to 0.0151103
Heightened Def Con from 0.0214145 to 0.0214145
Heightened Def Con from 0.0226422 to 0.0226422
Heightened Def Con from 0.0229173 to 0.0229173
Heightened Def Con from 0.0231993 to 0.0231993
Heightened Def Con from 0.0235969 to 0.0235969
Heightened Def Con from 0.0307098 to 0.0307098
Heightened Def Con from 0.0321369 to 0.0321369
Heightened Def Con from 0.0342366 to 0.0342366
Heightened Def Con from 0.0347546 to 0.0347546
Heightened Def Con from 0.035149 to 0.035149
Heightened Def Con from 0.0352644 to 0.0352644
Heightened Def Con from 0.0406254 to 0.0406254
Heightened Def Con from 0.0461405 to 0.0461405
Heightened Def Con from 0.0493998 to 0.0493998
Heightened Def Con from 0.0495197 to 0.0495197
Heightened Def Con from 0.0516214 to 0.0516214
Heightened Def Con from 0.0524547 to 0.0524547
Heightened Def Con from 0.0608404 to 0.0608404
Heightened Def Con from 0.0634577 to 0.0634577
Heightened Def Con from 0.0721515 to 0.0721515
Heightened Def Con from 0.0793433 to 0.0793433
Heightened Def Con from 0.08523 to 0.08523
Heightened Def Con from 0.0874129 to 0.0874129
Heightened Def Con from 0.0927389 to 0.0927389
Total elapsed time: 4.634 seconds.

